// Generated for: spectre
// Generated on: May  5 16:29:54 2022
// Design library name: sobel_operator
// Design cell name: test_DFF_timing
// Design view name: schematic
simulator lang=spectre
global 0
